/*--------------------------------*- C++ -*----------------------------------*\
  =========                 |
  \\      /  F ield         | OpenFOAM: The Open Source CFD Toolbox
   \\    /   O peration     | Website:  https://openfoam.org
    \\  /    A nd           | Version:  8
     \\/     M anipulation  |
\*---------------------------------------------------------------------------*/
FoamFile
{
    version     2.0;
    format      ascii;
    class       dictionary;
    location    "system";
    object      controlDict;
}
// * * * * * * * * * * * * * * * * * * * * * * * * * * * * * * * * * * * * * //

application     icoFoam;

startFrom       startTime;

startTime       0;

stopAt          endTime;

endTime         2;

deltaT          .01;

writeControl    timeStep;

writeInterval   1;

purgeWrite      0;

writeFormat     ascii;

writePrecision  6;

writeCompression off;

timeFormat      general;

timePrecision   6;

runTimeModifiable true;

DebugSwitches
{
    lduMatrix 2;
}

functions
{
    probes
    {
        type            probes;
        libs            ("libsampling.so");
        writeControl    timeStep; //writeTime;
        probeLocations
        (
            (0.05 0.1 0.005)
            (0.05 0.09 0.005)
            (0.05 0.08 0.005)
            (0.05 0.07 0.005)
            (0.05 0.06 0.005)
            (0.05 0.05 0.005)
            (0.05 0.04 0.005)
            (0.05 0.03 0.005)
            (0.05 0.02 0.005)
            (0.05 0.01 0.005)
            (0.05 0 0.005)
        );
        fixedLocations  false;
        fields
        (
            U
        );
    }
}


// ************************************************************************* //
