/*--------------------------------*- C++ -*----------------------------------*\
  =========                 |
  \\      /  F ield         | OpenFOAM: The Open Source CFD Toolbox
   \\    /   O peration     | Website:  https://openfoam.org
    \\  /    A nd           | Version:  8
     \\/     M anipulation  |
\*---------------------------------------------------------------------------*/
FoamFile
{
    version     2.0;
    format      ascii;
    class       polyBoundaryMesh;
    location    "constant/polyMesh";
    object      boundary;
}
// * * * * * * * * * * * * * * * * * * * * * * * * * * * * * * * * * * * * * //

5
(
    left
    {
        type            patch;
        nFaces          10;
        startFace       180;
    }
    right
    {
        type            patch;
        nFaces          10;
        startFace       190;
    }
    up
    {
        type            wall;
        inGroups        List<word> 1(wall);
        nFaces          10;
        startFace       200;
    }
    down
    {
        type            wall;
        inGroups        List<word> 1(wall);
        nFaces          10;
        startFace       210;
    }
    frontAndBack
    {
        type            empty;
        inGroups        List<word> 1(empty);
        nFaces          200;
        startFace       220;
    }
)

// ************************************************************************* //
