/*--------------------------------*- C++ -*----------------------------------*\
  =========                 |
  \\      /  F ield         | OpenFOAM: The Open Source CFD Toolbox
   \\    /   O peration     | Website:  https://openfoam.org
    \\  /    A nd           | Version:  8
     \\/     M anipulation  |
\*---------------------------------------------------------------------------*/
FoamFile
{
    version     2.0;
    format      ascii;
    class       polyBoundaryMesh;
    location    "constant/polyMesh";
    object      boundary;
}
// * * * * * * * * * * * * * * * * * * * * * * * * * * * * * * * * * * * * * //

6
(
    inlet
    {
        type            wall;
        inGroups        List<word> 1(wall);
        nFaces          60;
        startFace       7966;
    }
    outlet
    {
        type            wall;
        inGroups        List<word> 1(wall);
        nFaces          60;
        startFace       8026;
    }
    up
    {
        type            wall;
        inGroups        List<word> 1(wall);
        nFaces          60;
        startFace       8086;
    }
    down
    {
        type            wall;
        inGroups        List<word> 1(wall);
        nFaces          60;
        startFace       8146;
    }
    frontAndBack
    {
        type            patch;
        nFaces          1072;
        startFace       8206;
    }
    cylinder
    {
        type            wall;
        inGroups        List<word> 1(wall);
        nFaces          624;
        startFace       9278;
    }
)

// ************************************************************************* //
