/*--------------------------------*- C++ -*----------------------------------*\
| =========                 |                                                 |
| \\      /  F ield         | OpenFOAM: The Open Source CFD Toolbox           |
|  \\    /   O peration     | Version:  5.0                                   |
|   \\  /    A nd           | Web:      www.OpenFOAM.org                      |
|    \\/     M anipulation  |                                                 |
\*---------------------------------------------------------------------------*/
FoamFile
{
    version     2.0;
    format      ascii;
    class       volVectorField;
    object      U;
}
// * * * * * * * * * * * * * * * * * * * * * * * * * * * * * * * * * * * * * //

dimensions      [0 1 -1 0 0 0 0];

internalField   uniform (2 2 0);

boundaryField
{
    left
    {
        type            fixedValue;
        value           $internalField;
    }

    right
    {
        type            zeroGradient;
    }

    down
    {
        type            fixedValue;
        value           $internalField;
    }

    up
    {
        type           zeroGradient;
    }

    frontAndBack
    {
        type           empty;
    }
}
