/*--------------------------------*- C++ -*----------------------------------*\
  =========                 |
  \\      /  F ield         | OpenFOAM: The Open Source CFD Toolbox
   \\    /   O peration     | Website:  https://openfoam.org
    \\  /    A nd           | Version:  8
     \\/     M anipulation  |
\*---------------------------------------------------------------------------*/
FoamFile
{
    version     2.0;
    format      ascii;
    class       polyBoundaryMesh;
    location    "constant/polyMesh";
    object      boundary;
}
// * * * * * * * * * * * * * * * * * * * * * * * * * * * * * * * * * * * * * //

6
(
    inlet
    {
        type            wall;
        inGroups        List<word> 1(wall);
        nFaces          150;
        startFace       34404;
    }
    outlet
    {
        type            wall;
        inGroups        List<word> 1(wall);
        nFaces          150;
        startFace       34554;
    }
    up
    {
        type            wall;
        inGroups        List<word> 1(wall);
        nFaces          150;
        startFace       34704;
    }
    down
    {
        type            wall;
        inGroups        List<word> 1(wall);
        nFaces          150;
        startFace       34854;
    }
    frontAndBack
    {
        type            patch;
        nFaces          5760;
        startFace       35004;
    }
    cylinder
    {
        type            wall;
        inGroups        List<word> 1(wall);
        nFaces          1536;
        startFace       40764;
    }
)

// ************************************************************************* //
