/*--------------------------------*- C++ -*----------------------------------*\
| =========                 |                                                 |
| \\      /  F ield         | OpenFOAM: The Open Source CFD Toolbox           |
|  \\    /   O peration     | Version:  x                                     |
|   \\  /    A nd           | Web:      www.OpenFOAM.org                      |
|    \\/     M anipulation  |                                                 |
\*---------------------------------------------------------------------------*/
FoamFile
{
    version     2.0;
    format      ascii;
    class       dictionary;
    object      blockMeshDict;
}
// * * * * * * * * * * * * * * * * * * * * * * * * * * * * * * * * * * * * * //

convertToMeters 1;

vertices
(
    (0 0 0)
    (0.02 0 0)
    (0.02 0.02 0)
    (0 0.02 0)
    (0 0 0.02)
    (0.02 0 0.02)
    (0.02 0.02 0.02)
    (0 0.02 0.02)
);

blocks
(
    hex (0 1 2 3 4 5 6 7) (5 5 1) simpleGrading (1 1 1)
);

edges
(
);

boundary
(
    left
    {
        type patch;
        faces
        (
            (0 4 7 3)
        );
    }
    right
    {
        type patch;
        faces
        (
            (2 6 5 1)
        );
    }
    top
    {
        type patch;
        faces
        (
            (2 3 7 6)
        );
    }
    bottom
    {
        type patch;
        faces
        (
            (1 0 4 5)
        );
    }
);

mergePatchPairs
(
);

// ************************************************************************* //
