/*--------------------------------*- C++ -*----------------------------------*\
| =========                 |                                                 |
| \\      /  F ield         | OpenFOAM: The Open Source CFD Toolbox           |
|  \\    /   O peration     | Version:  5.0                                   |
|   \\  /    A nd           | Web:      www.OpenFOAM.org                      |
|    \\/     M anipulation  |                                                 |
\*---------------------------------------------------------------------------*/
FoamFile
{
    version     2.0;
    format      ascii;
    class       dictionary;
    object      blockMeshDict;
}
// * * * * * * * * * * * * * * * * * * * * * * * * * * * * * * * * * * * * * //

convertToMeters 1;

vertices
(
    (-1 -2 -1.0001)
    (4 -2 -1.0001)
    (4 2 -1.0001)
    (-1 2 -1.0001)
    (-1 -2 1.0001)
    (4 -2 1.0001)
    (4 2 1.0001)
    (-1 2 1.0001)
);

blocks
(
    hex (0 1 2 3 4 5 6 7) (10 10 1) simpleGrading (1 1 1)
);

edges
(
);

boundary
(
    left
    {
        type outletInlet;
        faces
        (
            (0 4 7 3)
        );
    }
    right
    {
        type inletOutlet;
        faces
        (
            (2 6 5 1)
        );
    }
    up
    {
        type slip;
        faces
        (
            (2 3 7 6)
        );
    }
    down
    {
        type slip;
        faces
        (
            (0 1 5 4)
        );
    }
    frontAndBack
    {
        type empty;
        faces
        (
            (0 1 2 3)
            (4 5 6 7)
        );

    }
);

mergePatchPairs
(
);

// ************************************************************************* //
