/*--------------------------------*- C++ -*----------------------------------*\
| =========                 |                                                 |
| \\      /  F ield         | OpenFOAM: The Open Source CFD Toolbox           |
|  \\    /   O peration     | Version:  5.0                                   |
|   \\  /    A nd           | Web:      www.OpenFOAM.org                      |
|    \\/     M anipulation  |                                                 |
\*---------------------------------------------------------------------------*/
FoamFile
{
    version     2.0;
    format      ascii;
    class       volScalarField;
    object      T;
}
// * * * * * * * * * * * * * * * * * * * * * * * * * * * * * * * * * * * * * //

dimensions      [0 0 0 1 0 0 0];

internalField   uniform 0;

boundaryField
{
    left 
    {
        type            fixedValue;
        value           uniform 100;
    }

    right
    {
//        type            fixedValue;
//        value           uniform 0;
          type            zeroGradient;
    }

    up
    {
//        type            fixedValue;
//        value           uniform 100;
        type           zeroGradient;
    }

    down
    {
        type            fixedValue;
        value           uniform 0;
//          type            zeroGradient;

   }

    frontAndBack
    {
        type            empty;
    }
}

// ************************************************************************* //
